src/data/123Bus/ieee123_pv.dss
New XYCurve.MyPvsT npts=4 xarray=[0, 25, 75, 100] yarray=[1.2, 1.0, 0.8, 0.6]

New XYCurve.MyEff npts=4 xarray=[0.1, 0.2, 0.4, 1.0] yarray=[0.86, 0.90, 0.93, 0.97]

New Tshape.MyTemp npts=288 mInterval=5 temp=[25.0, 25.0, 25.0, 25.0, 25.0, 25.0, 25.0, 25.0, 25.0, 25.0, 25.0, 25.0, 25.0, 25.0, 25.0, 25.0, 25.0, 25.0, 25.0, 25.0, 25.0, 25.0, 25.0, 25.0, 25.0, 25.0, 25.0, 25.0, 25.0, 25.0, 25.0, 25.0, 25.0, 25.0, 25.0, 25.0, 25.0, 25.0, 25.0, 25.0, 25.0, 25.0, 25.0, 25.0, 25.0, 25.0, 25.0, 25.0, 25.0, 25.0, 25.0, 25.0, 25.0, 25.0, 25.0, 25.0, 25.0, 25.0, 25.0, 25.0, 25.0, 25.0, 25.0, 25.0, 25.0, 25.0, 25.0, 25.0, 25.0, 25.0, 25.0, 25.0, 25.0, 25.0, 25.0, 25.0, 25.0, 25.0, 25.0, 25.0, 25.0, 25.0, 25.0, 25.0, 25.0, 25.833333333333332, 26.666666666666668, 27.5, 28.333333333333332, 29.166666666666668, 30.0, 30.833333333333332, 31.666666666666668, 32.5, 33.333333333333336, 34.166666666666664, 35.0, 35.416666666666664, 35.833333333333336, 36.25, 36.666666666666664, 37.083333333333336, 37.5, 37.916666666666664, 38.333333333333336, 38.75, 39.166666666666664, 39.583333333333336, 40.0, 40.416666666666664, 40.833333333333336, 41.25, 41.666666666666664, 42.083333333333336, 42.5, 42.916666666666664, 43.333333333333336, 43.75, 44.166666666666664, 44.583333333333336, 45.0, 45.416666666666664, 45.833333333333336, 46.25, 46.666666666666664, 47.083333333333336, 47.5, 47.916666666666664, 48.333333333333336, 48.75, 49.166666666666664, 49.583333333333336, 50.0, 50.833333333333336, 51.666666666666664, 52.5, 53.333333333333336, 54.166666666666664, 55.0, 55.833333333333336, 56.666666666666664, 57.5, 58.333333333333336, 59.166666666666664, 60.0, 60.0, 60.0, 60.0, 60.0, 60.0, 60.0, 60.0, 60.0, 60.0, 60.0, 60.0, 60.0, 59.583333333333336, 59.166666666666664, 58.75, 58.333333333333336, 57.916666666666664, 57.5, 57.083333333333336, 56.666666666666664, 56.25, 55.833333333333336, 55.416666666666664, 55.0, 53.75, 52.5, 51.25, 50.0, 48.75, 47.5, 46.25, 45.0, 43.75, 42.5, 41.25, 40.0, 39.583333333333336, 39.166666666666664, 38.75, 38.333333333333336, 37.916666666666664, 37.5, 37.083333333333336, 36.666666666666664, 36.25, 35.833333333333336, 35.416666666666664, 35.0, 34.583333333333336, 34.166666666666664, 33.75, 33.333333333333336, 32.916666666666664, 32.5, 32.083333333333336, 31.666666666666668, 31.25, 30.833333333333332, 30.416666666666668, 30.0, 29.583333333333332, 29.166666666666668, 28.75, 28.333333333333332, 27.916666666666668, 27.5, 27.083333333333332, 26.666666666666668, 26.25, 25.833333333333332, 25.416666666666668, 25.0, 25.0, 25.0, 25.0, 25.0, 25.0, 25.0, 25.0, 25.0, 25.0, 25.0, 25.0, 25.0, 25.0, 25.0, 25.0, 25.0, 25.0, 25.0, 25.0, 25.0, 25.0, 25.0, 25.0, 25.0, 25.0, 25.0, 25.0, 25.0, 25.0, 25.0, 25.0, 25.0, 25.0, 25.0, 25.0, 25.0, 25.0, 25.0, 25.0, 25.0, 25.0, 25.0, 25.0, 25.0, 25.0, 25.0, 25.0, 25.0, 25.0, 25.0, 25.0, 25.0, 25.0, 25.0, 25.0, 25.0, 25.0, 25.0, 25.0, 25.0, 25.0, 25.0, 25.0, 25.0, 25.0, 25.0, 25.0, 25.0, 25.0, 25.0, 25.0]

! New Tshape.Mytemp npts=24 interval=1 temp=[25, 25, 25, 25, 25, 25, 25, 25, 35, 40, 45, 50, 60, 60, 55, 40, 35, 30, 25, 25, 25, 25, 25, 25]

New PVSystem.PV phases=3 Bus1=97 kV=4.16 kVA=1000 irrad=0.8 Pmpp=1000
~ temperature=25 PF=1 EffCurve=MyEff P-TCurve=MyPvsT
~ Daily=my_shape2_pv TDaily=MyTemp
~ Vminpu=0.001
~ Model=1

New PVSystem.PV-2 phases=3 Bus1=29 kV=4.16 kVA=1000 irrad=0.8 Pmpp=1000
~ temperature=25 PF=1 EffCurve=MyEff P-TCurve=MyPvsT
~ Daily=my_shape2_pv TDaily=MyTemp
~ Vminpu=0.001
~ Model=1

New PVSystem.PV-3 phases=1 Bus1=114.1 kV=2.4 kVA=1000 irrad=0.8 Pmpp=1000
~ temperature=25 PF=1 EffCurve=MyEff P-TCurve=MyPvsT
~ Daily=my_shape2_pv TDaily=MyTemp
~ Vminpu=0.001
~ Model=1

New PVSystem.PV-4 phases=1 Bus1=92.3 kV=2.4 kVA=1000 irrad=0.8 Pmpp=1000
~ temperature=25 PF=1 EffCurve=MyEff P-TCurve=MyPvsT
~ Daily=my_shape2_pv TDaily=MyTemp
~ Vminpu=0.001
~ Model=1

New PVSystem.PV-5 phases=1 Bus1=20.1 kV=2.4 kVA=1000 irrad=0.8 Pmpp=1000
~ temperature=25 PF=1 EffCurve=MyEff P-TCurve=MyPvsT
~ Daily=my_shape2_pv TDaily=MyTemp
~ Vminpu=0.001
~ Model=1

New PVSystem.PV-6 phases=3 Bus1=52 kV=4.16 kVA=1000 irrad=0.8 Pmpp=1000
~ temperature=25 PF=1 EffCurve=MyEff P-TCurve=MyPvsT
~ Daily=my_shape2_pv TDaily=MyTemp
~ Vminpu=0.001
~ Model=1

New PVSystem.PV-7 phases=3 Bus1=151 kV=4.16 kVA=1000 irrad=0.8 Pmpp=1000
~ temperature=25 PF=1 EffCurve=MyEff P-TCurve=MyPvsT
~ Daily=my_shape2_pv TDaily=MyTemp
~ Vminpu=0.001
~ Model=1

New PVSystem.PV-8 phases=1 Bus1=85.3 kV=2.4 kVA=1000 irrad=0.8 Pmpp=1000
~ temperature=25 PF=1 EffCurve=MyEff P-TCurve=MyPvsT
~ Daily=my_shape2_pv TDaily=MyTemp
~ Vminpu=0.001
~ Model=1